/*--------------------------------*- C++ -*----------------------------------*\
  =========                 |
  \\      /  F ield         | foam-extend: Open Source CFD
   \\    /   O peration     | Version:     5.0
    \\  /    A nd           | Coupled-fe: Porous media simulator
     \\/     M anipulation  | Version:  alpha
\*---------------------------------------------------------------------------*/
FoamFile
{
    version     2.0;
    format      ascii;
    class       dictionary;
    location    "system";
    object      controlDict;
}
// * * * * * * * * * * * * * * * * * * * * * * * * * * * * * * * * * * * * * //

application     coupledMatrixFoam;

startFrom       startTime;

startTime       0;

stopAt          endTime;

endTime         180000;//2 dias

deltaT          0.1;

writeControl    adjustableRunTime;

writeInterval   18000;

purgeWrite      0;

writeFormat     ascii;

writePrecision  8;

writeCompression off;

timeFormat      general;

timePrecision   6;

runTimeModifiable yes;

adjustTimeStep  yes;

maxCo           100;

maxDeltaT       500;

functions
{}


// ************************************************************************* //
