/*--------------------------------*- C++ -*----------------------------------*\
  =========                 |
  \\      /  F ield         | foam-extend: Open Source CFD
   \\    /   O peration     | Version:     5.0
    \\  /    A nd           | Coupled-fe: Porous media simulator
     \\/     M anipulation  | Version:  alpha
\*---------------------------------------------------------------------------*/
FoamFile
{
    version     2.0;
    format      ascii;
    class       dictionary;
    location    "system";
    object      fvSchemes;
}
// * * * * * * * * * * * * * * * * * * * * * * * * * * * * * * * * * * * * * //

ddtSchemes
{
    default                             Euler;
}

gradSchemes
{
    default                             Gauss linear;
}

divSchemes
{
    default                             Gauss linear;
    div(phip,alpha)                     Gauss upwind;
    div(phig,alpha)                     Gauss upwind;
}

laplacianSchemes
{
    default                             Gauss linear uncorrected;
}

interpolationSchemes
{
    default                             linear;
}

snGradSchemes
{
    default                             uncorrected;
}

// ************************************************************************* //
