/*--------------------------------*- C++ -*----------------------------------*\
  =========                 |
  \\      /  F ield         | foam-extend: Open Source CFD
   \\    /   O peration     | Version:     5.0
    \\  /    A nd           | Coupled-fe: Porous media simulator
     \\/     M anipulation  | Version:  alpha
\*---------------------------------------------------------------------------*/
FoamFile
{
    version     2.0;
    format      binary;
    class       volVectorField;
    location    "0";
    object      U.water;
}
// * * * * * * * * * * * * * * * * * * * * * * * * * * * * * * * * * * * * * //

dimensions      [0 1 -1 0 0 0 0];

internalField   uniform (0 0 0);

boundaryField
{
    inlet
    {
        type            fixedValue;
        value           uniform (0 0 0.00001306984);
    }
    outlet
    {
        type                fluxCorrectedVelocity;
        phi                 phi.water;
        rho                 rho.water;
        value               $internalField;
    }
    wall
    {
        type                fixedValue;
        value               uniform (0 0 0);
    }
}


// ************************************************************************* //
