/*--------------------------------*- C++ -*----------------------------------*\
  =========                 |
  \\      /  F ield         | OpenFOAM: The Open Source CFD Toolbox
   \\    /   O peration     | Version:  foam-extend 5.0
    \\  /    A nd           | PorousMedia: A Wikki Brasil project
     \\/     M anipulation  | Solver: coupledMatrixFoam
\*---------------------------------------------------------------------------*/
FoamFile
{
    version     2.0;
    format      binary;
    class       volVectorField;
    object      U.oil;
}
// * * * * * * * * * * * * * * * * * * * * * * * * * * * * * * * * * * * * * //

dimensions      [0 1 -1 0 0 0 0];

internalField   uniform (0 0 0);

boundaryField
{
    outlet
    {
        type                fluxCorrectedVelocity;
        phi                 phi.oil;
        rho                 rho.oil;
        value               $internalField;
    }

    ".*"
    {
        type                fixedValue;
        value               $internalField;
    }
}

// ************************************************************************* //
